Molecule_0_0_for_phore_B1MDI3_merge
     RDKit          3D

 11 10  0  0  0  0  0  0  0  0999 V2000
  -20.8113  -17.8369   12.5260 N   0  0  0  0  0  0  0  0  0  0  0  0
  -19.2318  -15.9695   12.6238 N   0  0  0  0  0  0  0  0  0  0  0  0
  -21.9115  -18.0233   12.5243 O   0  0  0  0  0  0  0  0  0  0  0  0
  -20.4090  -16.7323   12.1542 N   0  0  0  0  0  0  0  0  0  0  0  0
  -17.6712  -16.2910   11.0560 N   0  0  0  0  0  0  0  0  0  0  0  0
  -19.9595  -18.9620   12.9423 O   0  0  0  0  0  0  0  0  0  0  0  0
  -16.2798  -16.3701   10.5063 C   0  0  0  0  0  0  0  0  0  0  0  0
  -16.0823  -15.6411    9.6686 C   0  0  0  0  0  0  0  0  0  0  0  0
  -15.2763  -14.8392   10.3189 C   0  0  0  0  0  0  0  0  0  0  0  0
  -17.8385  -16.8886   13.1812 N   0  0  0  0  0  0  0  0  0  0  0  0
  -18.0693  -15.8308   12.3578 C   0  0  0  0  0  0  0  0  0  0  0  0
  1  3  2  0
  1  4  1  0
  1  6  1  0
  2  4  2  3
  2 11  1  0
  5  7  1  0
  5 11  1  0
  7  8  1  0
  8  9  1  0
 10 11  1  0
M  CHG  1   1   1
M  END
